26

C        8.898477170   8.898477170   8.898477170
C        9.783332958   9.783332958   8.019637718
C        9.783332958   8.019637718   9.783332958
C        8.019637718   9.783332958   9.783332958
C        8.898505479  10.668161229  10.668161229
C       10.668161229  10.668161229   8.898505479
C       10.668161229   8.898505479  10.668161229
C        9.783377551  11.547025393   9.783377551
C        9.783377551   9.783377551  11.547025393
C       11.547025393   9.783377551   9.783377551
H        8.250797701   8.250797701   8.250797701
H        7.352172381  10.421789752   9.145134279
H        7.352172381   9.145134279  10.421789752
H        9.145134279  10.421789752   7.352172381
H       10.421789752   9.145134279   7.352172381
H        9.145134279   7.352172381  10.421789752
H       10.421789752   7.352172381   9.145134279
H        9.145211207  12.214809787   9.145211207
H       12.214809787   9.145211207   9.145211207
H        9.145211207   9.145211207  12.214809787
H        8.250939536  11.315933541  11.315933541
H       11.315933541  11.315933541   8.250939536
H       11.315933541   8.250939536  11.315933541
H       10.421777018  12.214427384  10.421777018
H       10.421777018  10.421777018  12.214427384
H       12.214427384  10.421777018  10.421777018


