42

C        0.906624705   0.897057054   0.902403441
C        1.772094230   1.794855520   0.003647694
C        1.784124022   0.021562944   1.785312510
C        0.010254367   1.793514702   1.761831368
C        0.891677949   2.675082235   2.681898071
C        2.669661590   2.660460831   0.902429855
C        2.666400250   0.900585196   2.670231174
C        1.773123521   3.556677985   1.761849583
C        1.780010763   1.786925619   3.538123125
C        3.545218865   1.783059512   1.785310010
C        0.876759266   4.453145609   0.902428045
C        0.011304726   3.555365100   0.003648542
C        0.891673863   2.675095918  -0.869335785
C       -0.886257745   2.689754889   0.902408263
C       -1.761833184   3.567151740   1.785301063
C       -0.882974168   4.449594413   2.670254234
C       -0.000696717   5.328623503   1.785362071
C        0.003382159   3.563227794   3.538140247
H        0.252144821   0.257641907   0.247383887
H       -0.635205160   1.147999601   2.424934348
H        2.426265549   1.140873940  -0.636121014
H        1.142805663  -0.644134171   2.422778985
H        2.423211836  -0.647744828   1.149489273
H        4.214609914   1.144099631   1.149440417
H        1.131217487   1.158646644   4.208592717
H        3.309051536   3.315013861   0.247471339
H        3.312349259   0.254783248   3.321126653
H        2.418580780   4.202206288   2.424939418
H        2.408283179   2.435816423   4.208491129
H        4.210840322   2.424419461   2.422799637
H        1.531249275   5.092608926   0.247470182
H        1.529960373   3.313435547  -1.537511007
H       -0.642808260   4.209387398  -0.636133917
H        0.253394840   2.036727372  -1.537490265
H       -1.525620448   2.035219600   0.247399601
H       -2.431193744   4.206151979   1.149441379
H       -2.427461077   2.925783515   2.422777417
H       -0.639783645   5.997964700   1.149570983
H       -0.624904952   2.914346551   4.208508033
H       -1.528926229   5.095397230   3.321149249
H        0.640623260   5.994302456   2.422840113
H        0.652166968   4.191512144   4.208607919
