56

C        0.909089479   0.903039070   0.903039070
C        1.770974601   1.796219934   0.006908619
C        1.770974601   0.006908619   1.796219934
C       -0.006524251   1.776994462   1.776994462
C        0.898413254   2.681911669   2.681911669
C        2.668442565   2.662568860   0.904370685
C        2.668442565   0.904370685   2.662568860
C        1.772354701   3.555771793   1.766195729
C        1.772354701   1.766195729   3.555771793
C        3.543444717   1.784127176   1.784127176
C        0.879053234   4.451667488   0.904301500
C        0.012674950   3.554238393   0.006825602
C        0.891114477   2.674490706  -0.868245630
C       -0.880555407   2.692461369   0.902959857
C       -1.776732010   3.554247280   1.796123589
C       -0.879257401   4.451670061   2.662467957
C        0.000561036   5.326548952   1.784053973
C       -0.017378914   3.555740392   3.555740392
C       -0.879257401   2.662467957   4.451670061
C       -1.776732010   1.796123589   3.554247280
C       -0.880555407   0.902959857   2.692461369
C       -2.651801492   2.674433713   2.674433713
C        0.012674950   0.006825602   3.554238393
C        0.879053234   0.904301500   4.451667488
C        0.000561036   1.784053973   5.326548952
C        0.891114477  -0.868245630   2.674490706
H        0.246974635   0.256661500   0.256661500
H        2.426191764   1.141097012  -0.631240376
H        2.426191764  -0.631240376   1.141097012
H        4.213219416   1.146713571   1.146713571
H        3.306564708   3.317427880   0.248904644
H        3.306564708   0.248904644   3.317427880
H        2.418716494   4.202179191   2.428205124
H        2.418716494   2.428205124   4.202179191
H        4.209341467   2.423555306   2.423555306
H        1.533928748   5.089779552   0.248839771
H        1.528253678   3.311638197  -1.538488494
H       -0.642310400   4.209487491  -0.631403111
H        0.251603538   2.034705544  -1.533811662
H       -1.526748865   2.030120453   0.256631868
H       -2.414838767   4.209476675   1.141000293
H       -0.636701113   5.996410682   1.146612330
H       -1.534636166   5.089835918   3.317344135
H        0.640091781   5.992306795   2.423534302
H        0.644646665   4.202118196   4.202118196
H       -1.534636166   3.317344135   5.089835918
H       -3.322079736   3.311544659   3.311544659
H       -2.414838767   1.141000293   4.209476675
H       -1.526748865   0.256631868   2.030120453
H       -3.317237521   2.034719355   2.034719355
H       -0.642310400  -0.631403111   4.209487491
H       -0.636701113   1.146612330   5.996410682
H        1.533928748   0.248839771   5.089779552
H        0.640091781   2.423534302   5.992306795
H        1.528253678  -1.538488494   3.311638197
H        0.251603538  -1.533811662   2.034705544
