65

C        0.000000000  -0.000000000   0.000000000
C       -0.930204091   0.930204091  -0.930204091
C       -0.930204091  -0.930204091   0.930204091
C        0.930204091   0.930204091   0.930204091
C        0.930204091  -0.930204091  -0.930204091
C       -1.863548825   1.863548825   0.039362144
C       -1.863548825   0.039362144   1.863548825
C       -1.863548825  -0.039362144  -1.863548825
C       -1.863548825  -1.863548825  -0.039362144
C        1.863548825   1.863548825  -0.039362144
C        1.863548825  -0.039362144   1.863548825
C       -0.039362144   1.863548825   1.863548825
C        1.863548825   0.039362144  -1.863548825
C        0.039362144   1.863548825  -1.863548825
C        1.863548825  -1.863548825   0.039362144
C        0.039362144  -1.863548825   1.863548825
C       -0.039362144  -1.863548825  -1.863548825
C       -2.774674829   1.029597576   1.029597576
C       -1.029597576   2.774674829   1.029597576
C       -1.029597576   1.029597576   2.774674829
C       -2.774674829  -1.029597576  -1.029597576
C       -1.029597576  -1.029597576  -2.774674829
C       -1.029597576  -2.774674829  -1.029597576
C        1.029597576   1.029597576  -2.774674829
C        1.029597576   2.774674829  -1.029597576
C        2.774674829   1.029597576  -1.029597576
C        1.029597576  -2.774674829   1.029597576
C        1.029597576  -1.029597576   2.774674829
C        2.774674829  -1.029597576   1.029597576
H       -3.658356936   0.549231222   0.549231222
H       -3.658356936  -0.549231222  -0.549231222
H       -0.549231222   3.658356936   0.549231222
H        0.549231222   3.658356936  -0.549231222
H       -0.549231222   0.549231222   3.658356936
H        0.549231222  -0.549231222   3.658356936
H       -0.549231222  -0.549231222  -3.658356936
H        0.549231222   0.549231222  -3.658356936
H       -0.549231222  -3.658356936  -0.549231222
H        0.549231222  -3.658356936   0.549231222
H        3.658356936   0.549231222  -0.549231222
H        3.658356936  -0.549231222   0.549231222
H       -2.510301608   0.625294534  -2.510301608
H       -2.510301608   2.510301608  -0.625294534
H       -0.625294534   2.510301608  -2.510301608
H       -2.510301608  -2.510301608   0.625294534
H       -2.510301608  -0.625294534   2.510301608
H       -0.625294534  -2.510301608   2.510301608
H        0.625294534   2.510301608   2.510301608
H        2.510301608   2.510301608   0.625294534
H        2.510301608   0.625294534   2.510301608
H        0.625294534  -2.510301608  -2.510301608
H        2.510301608  -0.625294534  -2.510301608
H        2.510301608  -2.510301608  -0.625294534
H       -1.760244746   3.229757092   1.760244746
H       -1.760244746   1.760244746   3.229757092
H       -3.229757092   1.760244746   1.760244746
H       -1.760244746  -1.760244746  -3.229757092
H       -1.760244746  -3.229757092  -1.760244746
H       -3.229757092  -1.760244746  -1.760244746
H        1.760244746   3.229757092  -1.760244746
H        1.760244746   1.760244746  -3.229757092
H        1.760244746  -1.760244746   3.229757092
H        1.760244746  -3.229757092   1.760244746
H        3.229757092   1.760244746  -1.760244746
H        3.229757092  -1.760244746   1.760244746



