80

C       -0.015877649  -0.015877649  -0.015877649
C        0.905880016   0.905880016   0.905880016
C       -0.918756581   0.866371140  -0.918756581
C       -0.918756581  -0.918756581   0.866371140
C        0.866371140  -0.918756581  -0.918756581
C        1.808761994   1.808761994   0.023625689
C        1.808761994   0.023625689   1.808761994
C        0.023625689   1.808761994   1.808761994
C       -1.793182700   1.769856612   0.025303893
C       -1.793182700   0.025303893   1.769856612
C        1.769856612   0.025303893  -1.793182700
C        0.025303893   1.769856612  -1.793182700
C        1.769856612  -1.793182700   0.025303893
C        0.025303893  -1.793182700   1.769856612
C       -1.818154734  -0.051417246  -1.818154734
C       -1.818154734  -1.818154734  -0.051417246
C       -0.051417246  -1.818154734  -1.818154734
C       -0.879882327   2.683162166   0.864685212
C       -0.879882327   0.864685212   2.683162166
C        0.864685212   2.683162166  -0.879882327
C        2.683162166   0.864685212  -0.879882327
C        0.864685212  -0.879882327   2.683162166
C        2.683162166  -0.879882327   0.864685212
C       -2.661271553   1.024852798   1.024852798
C        1.024852798   1.024852798  -2.661271553
C        1.024852798  -2.661271553   1.024852798
C       -2.708798848  -0.998975750  -0.998975750
C       -0.998975750  -0.998975750  -2.708798848
C       -0.998975750  -2.708798848  -0.998975750
C       -0.134884975   3.551236076  -0.134884975
C       -0.134884975  -0.134884975   3.551236076
C        3.551236076  -0.134884975  -0.134884975
C        0.941442403   2.708182690   2.708182690
C        2.708182690   2.708182690   0.941442403
C        2.708182690   0.941442403   2.708182690
C        1.888992823   3.598830468   1.888992823
C        1.888992823   1.888992823   3.598830468
C        3.598830468   1.888992823   1.888992823
H       -3.600301100   0.606376290   0.606376290
H       -3.557913717  -0.495931186  -0.495931186
H        0.606376290   0.606376290  -3.600301100
H       -0.495931186  -0.495931186  -3.557913717
H        0.606376290  -3.600301100   0.606376290
H       -0.495931186  -3.557913717  -0.495931186
H       -2.428804132   2.429204339  -0.629651777
H       -0.629651777   2.429204339  -2.428804132
H       -2.428804132  -0.629651777   2.429204339
H       -0.629651777  -2.428804132   2.429204339
H        2.429204339  -0.629651777  -2.428804132
H        2.429204339  -2.428804132  -0.629651777
H       -2.453497420   0.625568349  -2.453497420
H       -2.453497420  -2.453497420   0.625568349
H        0.625568349  -2.453497420  -2.453497420
H       -1.539198579   3.318808852   1.519650715
H       -1.539198579   1.519650715   3.318808852
H        1.519650715   3.318808852  -1.539198579
H        1.519650715  -1.539198579   3.318808852
H        3.318808852   1.519650715  -1.539198579
H        3.318808852  -1.539198579   1.519650715
H       -3.014501841   1.780061882   1.780061882
H        1.780061882   1.780061882  -3.014501841
H        1.780061882  -3.014501841   1.780061882
H       -1.715612271  -1.715612271  -3.191520171
H       -1.715612271  -3.191520171  -1.715612271
H       -3.191520171  -1.715612271  -1.715612271
H        0.283595499   4.490269418   0.283595499
H        0.283595499   0.283595499   4.490269418
H        4.490269418   0.283595499   0.283595499
H       -0.890088766   3.904484591  -0.890088766
H       -0.890088766  -0.890088766   3.904484591
H        3.904484591  -0.890088766  -0.890088766
H        1.385928744   4.447925208   1.385928744
H        1.385928744   1.385928744   4.447925208
H        4.447925208   1.385928744   1.385928744
H        0.264468974   3.343532434   3.343532434
H        3.343532434   3.343532434   0.264468974
H        3.343532434   0.264468974   3.343532434
H        2.605621477   4.081585355   2.605621477
H        2.605621477   2.605621477   4.081585355
H        4.081585355   2.605621477   2.605621477
