119

C        0.000000000   0.000000000   0.000000000
C       -0.945236422   0.945236422  -0.945236422
C       -0.945236422  -0.945236422   0.945236422
C        0.945236422   0.945236422   0.945236422
C        0.945236422  -0.945236422  -0.945236422
C       -1.869434992   1.869434992  -0.015543554
C       -1.869434992  -0.015543554   1.869434992
C       -1.869434992   0.015543554  -1.869434992
C       -1.869434992  -1.869434992   0.015543554
C        1.869434992   1.869434992   0.015543554
C        1.869434992   0.015543554   1.869434992
C        0.015543554   1.869434992   1.869434992
C        1.869434992  -0.015543554  -1.869434992
C       -0.015543554   1.869434992  -1.869434992
C        1.869434992  -1.869434992  -0.015543554
C       -0.015543554  -1.869434992   1.869434992
C        0.015543554  -1.869434992  -1.869434992
C       -2.767736070   0.904775100   0.904775100
C       -0.904775100   2.767736070   0.904775100
C       -0.904775100   0.904775100   2.767736070
C       -2.767736070  -0.904775100  -0.904775100
C       -0.904775100  -0.904775100  -2.767736070
C       -0.904775100  -2.767736070  -0.904775100
C        0.904775100   0.904775100  -2.767736070
C        0.904775100   2.767736070  -0.904775100
C        2.767736070   0.904775100  -0.904775100
C        0.904775100  -2.767736070   0.904775100
C        0.904775100  -0.904775100   2.767736070
C        2.767736070  -0.904775100   0.904775100
C       -3.643049250  -0.000000000  -0.000000000
C       -0.000000000   0.000000000  -3.643049250
C       -0.000000000  -3.643049250  -0.000000000
C       -0.000000000   3.643049250   0.000000000
C       -0.000000000   0.000000000   3.643049250
C        3.643049250   0.000000000  -0.000000000
C       -2.829419323   0.999007949  -2.829419323
C       -2.829419323   2.829419323  -0.999007949
C       -0.999007949   2.829419323  -2.829419323
C       -2.829419323  -2.829419323   0.999007949
C       -2.829419323  -0.999007949   2.829419323
C       -0.999007949  -2.829419323   2.829419323
C        0.999007949   2.829419323   2.829419323
C        2.829419323   2.829419323   0.999007949
C        2.829419323   0.999007949   2.829419323
C        0.999007949  -2.829419323  -2.829419323
C        2.829419323  -0.999007949  -2.829419323
C        2.829419323  -2.829419323  -0.999007949
C       -2.020250769   2.020250769  -3.750454897
C       -3.750454897   2.020250769  -2.020250769
C       -2.020250769  -3.750454897   2.020250769
C       -3.750454897  -2.020250769   2.020250769
C        2.020250769  -2.020250769  -3.750454897
C        2.020250769  -3.750454897  -2.020250769
C       -2.020250769   3.750454897  -2.020250769
C       -2.020250769  -2.020250769   3.750454897
C        2.020250769   3.750454897   2.020250769
C        2.020250769   2.020250769   3.750454897
C        3.750454897   2.020250769   2.020250769
C        3.750454897  -2.020250769  -2.020250769
H       -1.557271841   3.425636701   1.557271841
H       -1.557271841   1.557271841   3.425636701
H       -3.425636701   1.557271841   1.557271841
H       -1.557271841  -1.557271841  -3.425636701
H       -1.557271841  -3.425636701  -1.557271841
H       -3.425636701  -1.557271841  -1.557271841
H        1.557271841   3.425636701  -1.557271841
H        1.557271841   1.557271841  -3.425636701
H        1.557271841  -1.557271841   3.425636701
H        1.557271841  -3.425636701   1.557271841
H        3.425636701   1.557271841  -1.557271841
H        3.425636701  -1.557271841   1.557271841
H       -4.341221966   0.603538701  -0.603538701
H       -4.341221966  -0.603538701   0.603538701
H       -0.603538701   0.603538701  -4.341221966
H       -0.603538701  -4.341221966   0.603538701
H        0.603538701  -0.603538701  -4.341221966
H        0.603538701  -4.341221966  -0.603538701
H       -0.603538701   4.341221966  -0.603538701
H       -0.603538701  -0.603538701   4.341221966
H        0.603538701   4.341221966   0.603538701
H        0.603538701   0.603538701   4.341221966
H        4.341221966   0.603538701   0.603538701
H        4.341221966  -0.603538701  -0.603538701
H       -4.698885314   1.601786454  -1.601786454
H       -4.698885314  -1.601786454   1.601786454
H       -1.601786454   1.601786454  -4.698885314
H       -1.601786454  -4.698885314   1.601786454
H        1.601786454  -1.601786454  -4.698885314
H        1.601786454  -4.698885314  -1.601786454
H       -1.601786454   4.698885314  -1.601786454
H       -1.601786454  -1.601786454   4.698885314
H        1.601786454   4.698885314   1.601786454
H        1.601786454   1.601786454   4.698885314
H        4.698885314   1.601786454   1.601786454
H        4.698885314  -1.601786454  -1.601786454
H       -3.468011552   3.468011552  -0.319577032
H       -3.468011552  -0.319577032   3.468011552
H       -3.468011552   0.319577032  -3.468011552
H       -3.468011552  -3.468011552   0.319577032
H        0.319577032   3.468011552   3.468011552
H       -0.319577032   3.468011552  -3.468011552
H       -0.319577032  -3.468011552   3.468011552
H        0.319577032  -3.468011552  -3.468011552
H        3.468011552   3.468011552   0.319577032
H        3.468011552   0.319577032   3.468011552
H        3.468011552  -0.319577032  -3.468011552
H        3.468011552  -3.468011552  -0.319577032
H       -4.140679969   2.769150047  -2.769150047
H       -4.140679969  -2.769150047   2.769150047
H       -2.769150047   2.769150047  -4.140679969
H       -2.769150047  -4.140679969   2.769150047
H        2.769150047  -2.769150047  -4.140679969
H        2.769150047  -4.140679969  -2.769150047
H       -2.769150047   4.140679969  -2.769150047
H       -2.769150047  -2.769150047   4.140679969
H        2.769150047   4.140679969   2.769150047
H        2.769150047   2.769150047   4.140679969
H        4.140679969   2.769150047   2.769150047
H        4.140679969  -2.769150047  -2.769150047
