22
# Urotropine from https://pubchem.ncbi.nlm.nih.gov/rest/pug/compound/cid/4101/record/SDF/?record_type=3d&response_type=display
C   -0.0675   -1.6411   -0.4404
C   1.6916   -0.1065   0.1379
C   -0.1607   -0.4327   1.6365
C   0.1607   0.4327   -1.6366
C   -1.6916   0.1066   -0.1379
C   0.0675   1.6411   0.4405
H   0.5778   -2.1664   -1.1566
H   -0.7657   -2.4028   -0.0695
H   2.3211   0.29   0.9455
H   2.3888   -0.5866   -0.5613
H   -0.8617   -1.1589   2.0686
H   0.4142   -0.0458   2.4882
H   0.8128   -0.0315   -2.3882
H   -0.3653   1.2361   -2.1687
H   -2.2722   0.9004   -0.6259
H   -2.4377   -0.6038   0.2418
H   0.6492   2.089   1.2569
H   -0.4613   2.4802   -0.0304
N   0.7477   -1.1141   0.6817
N   -0.8166   -0.5631   -1.1318
N   0.9809   1.0052   -0.5408
N   -0.912   0.672   0.9908
