163

C        0.000000000  -0.000000000   0.000000000
C        1.785042535   1.785042535   0.005904290
C       -1.785042535  -1.785042535   0.005904290
C       -1.785042535   1.785042535  -0.005904290
C        1.785042535  -1.785042535  -0.005904290
C        1.785042535  -0.005904290  -1.785042535
C       -1.785042535   0.005904290  -1.785042535
C       -1.785042535  -0.005904290   1.785042535
C        1.785042535   0.005904290   1.785042535
C       -0.005904290   1.785042535  -1.785042535
C        0.005904290  -1.785042535  -1.785042535
C        0.005904290   1.785042535   1.785042535
C       -0.005904290  -1.785042535   1.785042535
C        1.778248215   1.778248215  -3.569245909
C       -1.778248215  -1.778248215  -3.569245909
C       -1.778248215   1.778248215   3.569245909
C        1.778248215  -1.778248215   3.569245909
C       -0.000000000  -0.000000000  -3.568192504
C        0.000000000   0.000000000   3.568192504
C        0.000000000   3.568192504   0.000000000
C        0.000000000  -3.568192504  -0.000000000
C        1.778248215   3.569245909  -1.778248215
C       -1.778247215  -3.569245909  -1.778248215
C       -1.778248215   3.569245909   1.778248215
C        1.778248215  -3.569245909   1.778248215
C        0.877002703  -0.877002703  -2.654051009
C        0.877002703   0.877002703   2.654051009
C       -0.877002703  -0.877002703   2.654051009
C        0.877002703   2.654051009   0.877002703
C       -0.877002703  -2.654051009   0.877002703
C       -0.877002703   2.654051009  -0.877002703
C        0.877002703  -2.654051009  -0.877002703
C        0.901345150   2.655050125  -2.655050125
C       -0.901345150  -2.655050125  -2.655050125
C       -0.901345150   2.655050125   2.655050125
C        0.901345150  -2.655050125   2.655050125
C        2.655050125   2.655050125  -0.901345150
C       -2.655050125  -2.655050125  -0.901345150
C       -2.655050125   2.655050125   0.901345150
C        2.655050125  -2.655050125   0.901345150
C        0.888841242   4.417860728  -0.888841242
C       -0.888841242  -4.417860728  -0.888841242
C       -0.888841242   4.417860728   0.888841242
C        0.888841242  -4.417860728   0.888841242
C        4.417860728   0.888841242  -0.888841242
C       -4.417860728  -0.888841242  -0.888841242
C       -4.417860728   0.888841242   0.888841242
C        4.417860728  -0.888841242   0.888841242
C        0.888841242   0.888841242  -4.417860728
C       -0.888841242  -0.888841242  -4.417860728
C       -0.888841242   0.888841242   4.417860728
C        0.888841242  -0.888841242   4.417860728
C        3.568192504   0.000000000   0.000000000
C       -3.568192504  -0.000000000   0.000000000
C        3.569245909   1.778248215  -1.778248215
C       -3.569245909  -1.778248215  -1.778248215
C       -3.569245909   1.778248215   1.778248215
C        3.569245909  -1.778247215   1.778247215
C       -0.889104497   0.889104497   0.889104497
C        0.889104497  -0.889104497   0.889104497
C        0.889104497   0.889104497  -0.889104497
C       -0.889104497  -0.889104497  -0.889104497
C        2.654051009   0.877002703   0.877002703
C       -2.654051009  -0.877002703   0.877002703
C       -2.654051009   0.877002703  -0.877002703
C        2.654051009  -0.877002703  -0.877002703
C        2.655050125   0.901345150  -2.655050125
C       -2.655050125  -0.901345150  -2.655050125
C       -2.655050125   0.901345150   2.655050125
C        2.655050125  -0.901345150   2.655050125
C       -0.877002703   0.877002703  -2.654051009
H        3.308290609   3.308290609  -0.248564598
H       -3.308290609  -3.308290609  -0.248564598
H       -3.308290609   3.308290609   0.248564598
H        3.308290609  -3.308290609   0.248564598
H       -1.530002302   3.308078573  -1.530002302
H        1.530002302  -3.308078573  -1.530002302
H        1.530002302   3.308078573   1.530002302
H       -1.530002302  -3.308078573   1.530002302
H        3.308078573  -1.530002302  -1.530002302
H       -3.308078573   1.530002302  -1.530002302
H       -3.308078573  -1.530002302   1.530002302
H        3.308078573   1.530002302   1.530002302
H       -1.530002302   1.530002302  -3.308078573
H        1.530002302  -1.530002302  -3.308078573
H        1.530002302   1.530002302   3.308078573
H       -1.530002302  -1.530002302   3.308078573
H        3.308290609   0.248564598  -3.308290609
H       -3.308290609  -0.248564598  -3.308290609
H       -3.308290609   0.248564598   3.308290609
H        3.308290609  -0.248564598   3.308290609
H        0.248564598   3.308290609  -3.308290609
H       -0.248564598  -3.308290609  -3.308290609
H       -0.248564598   3.308290609   3.308290609
H        0.248564598  -3.308290609   3.308290609
C        4.425086949   2.666880499  -2.666880499
C       -4.425086949  -2.666880499  -2.666880499
C       -4.425086949   2.666880499   2.666880499
C        4.425086949  -2.666880499   2.666880499
C        2.666880499   4.425086949  -2.666880499
C       -2.666880499  -4.425086949  -2.666880499
C       -2.666880499   4.425086949   2.666880499
C        2.666880499  -4.425086949   2.666880499
C        2.666880499   2.666880499  -4.425086949
C       -2.666880499  -2.666880499  -4.425086949
C       -2.666880499   2.666880499   4.425086949
C        2.666880499  -2.666880499   4.425086949
H        0.249647113   5.090591739  -1.527369166
H       -0.249647113  -5.090591739  -1.527369166
H       -0.249647113   5.090591739   1.527369166
H        0.249647113  -5.090591739   1.527369166
H        1.527369166   5.090591739  -0.249647113
H       -1.527369166  -5.090591739  -0.249647113
H       -1.527369166   5.090591739   0.249647113
H        1.527369166  -5.090591739   0.249647113
H        5.090591739   0.249647113  -1.527369166
H       -5.090591739  -0.249647113  -1.527369166
H       -5.090591739   0.249647113   1.527369166
H        5.090591739  -0.249647113   1.527369166
H        5.090591739   1.527369166  -0.249647113
H       -5.090591739  -1.527369166  -0.249647113
H       -5.090591739   1.527369166   0.249647113
H        5.090591739  -1.527369166   0.249647113
H        0.249647113   1.527369166  -5.090591739
H       -0.249647113  -1.527369166  -5.090591739
H       -0.249647113   1.527369166   5.090591739
H        0.249647113  -1.527369166   5.090591739
H        1.527369166   0.249647113  -5.090591739
H       -1.527369166  -0.249647113  -5.090591739
H       -1.527369166   0.249647113   5.090591739
H        1.527369166  -0.249647113   5.090591739
H        2.019612420   5.094688052  -3.297036133
H       -2.019612420  -5.094688052  -3.297036133
H       -2.019612420   5.094688052   3.297036133
H        2.019612420  -5.094688052   3.297036133
H        3.297036133   5.094688052  -2.019612420
H       -3.297036133  -5.094688052  -2.019612420
H       -3.297036133   5.094688052   2.019612420
H        3.297036133  -5.094688052   2.019612420
H        5.094688052   2.019612420  -3.297036133
H       -5.094688052  -2.019612420  -3.297036133
H       -5.094688052   2.019612420   3.297036133
H        5.094688052  -2.019612420   3.297036133
H        5.094688052   3.297036133  -2.019612420
H       -5.094688052  -3.297036133  -2.019612420
H       -5.094688052   3.297036133   2.019612420
H        5.094688052  -3.297036133   2.019612420
H        2.019612420   3.297036133  -5.094688052
H       -2.019612420  -3.297036133  -5.094688052
H       -2.019612420   3.297036133   5.094688052
H        2.019612420  -3.297036133   5.094688052
C        3.550652070   3.550652070  -3.550652070
C       -3.550652070  -3.550652070  -3.550652070
C       -3.550652070   3.550652070   3.550652070
C        3.550652070  -3.550652070   3.550652070
H        3.297036133   2.019612420  -5.094688052
H       -3.297036133  -2.019612420  -5.094688052
H       -3.297036133   2.019612420   5.094688052
H        3.297036133  -2.019612420   5.094688052
H        4.198169185   4.198169185  -4.198169185
H       -4.198169185  -4.198169185  -4.198169185
H       -4.198169185   4.198169185   4.198169185
H        4.198169185  -4.198169185   4.198169185


